<?xml version="1.0" encoding="UTF-8"?>

<!-- generated on 03/09/26 19:59:30 by Eclipse SUMO netconvert Version 1.8.0
<configuration xmlns:xsi="http://www.w3.org/2001/XMLSchema-instance" xsi:noNamespaceSchemaLocation="http://sumo.dlr.de/xsd/netconvertConfiguration.xsd">

    <input>
        <sumo-net-file value="temp.net.xml"/>
    </input>

    <output>
        <output-file value="map.net.xml"/>
    </output>

    <processing>
        <geometry.remove value="true"/>
        <geometry.min-radius.fix.railways value="false"/>
        <geometry.max-grade.fix value="false"/>
        <offset.disable-normalization value="true"/>
        <lefthand value="false"/>
    </processing>

    <ramp_guessing>
        <ramps.guess value="true"/>
    </ramp_guessing>

    <edge_removal>
        <keep-edges.in-geo-boundary value="113.27827,23.10723,113.29638,23.12389"/>
    </edge_removal>

    <junctions>
        <no-turnarounds value="true"/>
        <junctions.join value="true"/>
        <junctions.corner-detail value="5"/>
        <junctions.limit-turn-speed value="5.5"/>
        <rectangular-lane-cut value="false"/>
    </junctions>

    <pedestrian>
        <walkingareas value="false"/>
    </pedestrian>

    <report>
        <aggregate-warnings value="5"/>
    </report>

</configuration>
-->

<net version="1.6" junctionCornerDetail="5" limitTurnSpeed="5.50" xmlns:xsi="http://www.w3.org/2001/XMLSchema-instance" xsi:noNamespaceSchemaLocation="http://sumo.dlr.de/xsd/net_file.xsd">

    <location netOffset="-728151.78,-2551852.25" convBoundary="5097.66,5325.22,7182.69,7305.43" origBoundary="113.227000,23.059082,113.416118,23.141298" projParameter="+proj=utm +zone=49 +ellps=WGS84 +datum=WGS84 +units=m +no_defs"/>

    <type id="highway.bridleway" priority="1" numLanes="1" speed="2.78" allow="pedestrian" oneway="1" width="2.00"/>
    <type id="highway.bus_guideway" priority="1" numLanes="1" speed="27.78" allow="bus" oneway="1"/>
    <type id="highway.cycleway" priority="1" numLanes="1" speed="8.33" allow="bicycle" oneway="0" width="1.00"/>
    <type id="highway.footway" priority="1" numLanes="1" speed="2.78" allow="pedestrian" oneway="1" width="2.00"/>
    <type id="highway.ford" priority="1" numLanes="1" speed="2.78" allow="army" oneway="0"/>
    <type id="highway.living_street" priority="2" numLanes="1" speed="2.78" disallow="tram rail_urban rail rail_electric rail_fast ship" oneway="0"/>
    <type id="highway.motorway" priority="14" numLanes="2" speed="39.44" allow="private emergency authority army vip passenger hov taxi bus coach delivery truck trailer motorcycle evehicle custom1 custom2" oneway="1"/>
    <type id="highway.motorway_link" priority="9" numLanes="1" speed="22.22" allow="private emergency authority army vip passenger hov taxi bus coach delivery truck trailer motorcycle evehicle custom1 custom2" oneway="1"/>
    <type id="highway.path" priority="1" numLanes="1" speed="2.78" allow="pedestrian bicycle" oneway="0" width="2.00"/>
    <type id="highway.pedestrian" priority="1" numLanes="1" speed="2.78" allow="pedestrian" oneway="1" width="2.00"/>
    <type id="highway.primary" priority="12" numLanes="2" speed="27.78" disallow="tram rail_urban rail rail_electric rail_fast ship" oneway="0"/>
    <type id="highway.primary_link" priority="7" numLanes="1" speed="22.22" disallow="tram rail_urban rail rail_electric rail_fast ship" oneway="0"/>
    <type id="highway.raceway" priority="15" numLanes="2" speed="83.33" allow="vip" oneway="0"/>
    <type id="highway.residential" priority="3" numLanes="1" speed="13.89" disallow="tram rail_urban rail rail_electric rail_fast ship" oneway="0"/>
    <type id="highway.secondary" priority="11" numLanes="1" speed="27.78" disallow="tram rail_urban rail rail_electric rail_fast ship" oneway="0"/>
    <type id="highway.secondary_link" priority="6" numLanes="1" speed="22.22" disallow="tram rail_urban rail rail_electric rail_fast ship" oneway="0"/>
    <type id="highway.service" priority="1" numLanes="1" speed="5.56" allow="pedestrian delivery bicycle" oneway="0"/>
    <type id="highway.stairs" priority="1" numLanes="1" speed="1.39" allow="pedestrian" oneway="1" width="2.00"/>
    <type id="highway.step" priority="1" numLanes="1" speed="1.39" allow="pedestrian" oneway="1" width="2.00"/>
    <type id="highway.steps" priority="1" numLanes="1" speed="1.39" allow="pedestrian" oneway="1" width="2.00"/>
    <type id="highway.tertiary" priority="10" numLanes="1" speed="22.22" disallow="tram rail_urban rail rail_electric rail_fast ship" oneway="0"/>
    <type id="highway.tertiary_link" priority="5" numLanes="1" speed="22.22" disallow="tram rail_urban rail rail_electric rail_fast ship" oneway="0"/>
    <type id="highway.track" priority="1" numLanes="1" speed="5.56" allow="pedestrian motorcycle moped bicycle" oneway="0"/>
    <type id="highway.trunk" priority="13" numLanes="2" speed="27.78" disallow="pedestrian bicycle tram rail_urban rail rail_electric rail_fast ship" oneway="0"/>
    <type id="highway.trunk_link" priority="8" numLanes="1" speed="22.22" disallow="pedestrian bicycle tram rail_urban rail rail_electric rail_fast ship" oneway="0"/>
    <type id="highway.unclassified" priority="4" numLanes="1" speed="13.89" disallow="tram rail_urban rail rail_electric rail_fast ship" oneway="0"/>
    <type id="highway.unsurfaced" priority="1" numLanes="1" speed="8.33" disallow="tram rail_urban rail rail_electric rail_fast ship" oneway="0"/>
    <type id="railway.highspeed" priority="21" numLanes="1" speed="69.44" allow="rail_fast" oneway="1"/>
    <type id="railway.light_rail" priority="19" numLanes="1" speed="27.78" allow="rail_urban" oneway="1"/>
    <type id="railway.preserved" priority="16" numLanes="1" speed="27.78" allow="rail" oneway="1"/>
    <type id="railway.rail" priority="20" numLanes="1" speed="44.44" allow="rail" oneway="1"/>
    <type id="railway.subway" priority="18" numLanes="1" speed="27.78" allow="rail_urban" oneway="1"/>
    <type id="railway.tram" priority="17" numLanes="1" speed="13.89" allow="tram" oneway="1"/>

    <edge id=":1003386611-AddedOffRampNode_0" function="internal">
        <lane id=":1003386611-AddedOffRampNode_0_0" index="0" disallow="tram rail_urban rail rail_electric rail_fast ship" speed="27.78" length="8.40" shape="5534.01,7092.63 5531.71,7091.62 5529.82,7091.63 5527.93,7091.64 5525.63,7090.63"/>
        <lane id=":1003386611-AddedOffRampNode_0_1" index="1" disallow="tram rail_urban rail rail_electric rail_fast ship" speed="27.78" length="8.40" shape="5534.01,7092.63 5527.48,7088.02"/>
    </edge>
    <edge id=":1003393603#1-AddedOffRampNode_0" function="internal">
        <lane id=":1003393603#1-AddedOffRampNode_0_0" index="0" disallow="tram rail_urban rail rail_electric rail_fast ship" speed="27.78" length="8.27" shape="5565.61,7085.96 5567.92,7086.96 5569.81,7086.94 5571.70,7086.92 5574.00,7087.92"/>
        <lane id=":1003393603#1-AddedOffRampNode_0_1" index="1" disallow="tram rail_urban rail rail_electric rail_fast ship" speed="27.78" length="8.27" shape="5565.61,7085.96 5572.17,7090.54"/>
        <lane id=":1003393603#1-AddedOffRampNode_0_2" index="2" disallow="tram rail_urban rail rail_electric rail_fast ship" speed="27.78" length="8.27" shape="5563.78,7088.58 5570.34,7093.17"/>
    </edge>
    <edge id=":1003393608#1-AddedOffRampNode_0" function="internal">
        <lane id=":1003393608#1-AddedOffRampNode_0_0" index="0" disallow="tram rail_urban rail rail_electric rail_fast ship" speed="27.78" length="3.06" shape="5488.28,7019.38 5491.91,7017.96"/>
        <lane id=":1003393608#1-AddedOffRampNode_0_1" index="1" disallow="tram rail_urban rail rail_electric rail_fast ship" speed="27.78" length="3.06" shape="5488.28,7019.38 5490.13,7020.62"/>
    </edge>
    <edge id=":10921163982_0" function="internal">
        <lane id=":10921163982_0_0" index="0" disallow="tram rail_urban rail rail_electric rail_fast ship" speed="27.78" length="5.05" shape="5836.67,5479.81 5832.92,5483.21"/>
    </edge>
    <edge id=":10984085970_0" function="internal">
        <lane id=":10984085970_0_0" index="0" allow="pedestrian delivery bicycle" speed="8.24" length="8.35" shape="5592.35,7139.79 5591.19,7140.39 5590.03,7141.70 5588.85,7143.71 5587.66,7146.42"/>
    </edge>
    <edge id=":10984085970_1" function="internal">
        <lane id=":10984085970_1_0" index="0" disallow="tram rail_urban rail rail_electric rail_fast ship" speed="13.89" length="10.68" shape="5592.35,7139.79 5581.92,7142.06"/>
    </edge>
    <edge id=":10984085970_2" function="internal">
        <lane id=":10984085970_2_0" index="0" allow="pedestrian delivery bicycle" speed="4.65" length="5.94" shape="5584.69,7145.23 5585.12,7143.48 5584.80,7142.37 5583.73,7141.90 5581.92,7142.06"/>
    </edge>
    <edge id=":10984085970_3" function="internal">
        <lane id=":10984085970_3_0" index="0" allow="pedestrian delivery bicycle" speed="3.65" length="4.67" shape="5584.69,7145.23 5585.88,7144.41 5586.78,7144.34 5587.37,7145.01 5587.66,7146.42"/>
    </edge>
    <edge id=":11097230399_0" function="internal">
        <lane id=":11097230399_0_0" index="0" allow="pedestrian delivery bicycle" speed="3.65" length="4.67" shape="5581.83,6617.02 5581.57,6618.44 5580.99,6619.12 5580.10,6619.07 5578.89,6618.28"/>
    </edge>
    <edge id=":11405534972_0" function="internal">
        <lane id=":11405534972_0_0" index="0" allow="pedestrian delivery bicycle" speed="4.93" length="5.14" shape="5332.85,6310.80 5334.13,6310.15 5334.84,6309.26 5334.99,6308.13 5334.57,6306.76"/>
    </edge>
    <edge id=":11405534972_1" function="internal">
        <lane id=":11405534972_1_0" index="0" disallow="tram rail_urban rail rail_electric rail_fast ship" speed="27.78" length="6.52" shape="5332.85,6310.80 5334.64,6310.19 5335.86,6309.75 5337.05,6309.25 5338.78,6308.48"/>
        <lane id=":11405534972_1_1" index="1" disallow="tram rail_urban rail rail_electric rail_fast ship" speed="27.78" length="6.52" shape="5333.88,6313.83 5335.76,6313.19 5337.03,6312.73 5338.29,6312.21 5340.10,6311.40"/>
    </edge>
    <edge id=":11405534975_0" function="internal">
        <lane id=":11405534975_0_0" index="0" allow="pedestrian delivery bicycle" speed="5.10" length="5.04" shape="5209.68,6359.61 5210.45,6360.77 5211.40,6361.43 5212.52,6361.57 5213.83,6361.21"/>
    </edge>
    <edge id=":11405534975_1" function="internal">
        <lane id=":11405534975_1_0" index="0" disallow="tram rail_urban rail rail_electric rail_fast ship" speed="27.78" length="6.20" shape="5208.16,6363.73 5213.83,6361.21"/>
        <lane id=":11405534975_1_1" index="1" disallow="tram rail_urban rail rail_electric rail_fast ship" speed="27.78" length="6.20" shape="5209.46,6366.65 5215.13,6364.13"/>
    </edge>
    <edge id=":11470215473_0" function="internal">
        <lane id=":11470215473_0_0" index="0" allow="pedestrian delivery bicycle" speed="5.56" length="9.40" shape="5347.05,6290.39 5342.92,6281.95"/>
    </edge>
    <edge id=":11470215473_1" function="internal">
        <lane id=":11470215473_1_0" index="0" allow="pedestrian delivery bicycle" speed="5.56" length="10.34" shape="5347.05,6290.39 5346.18,6287.68 5346.40,6285.37 5347.71,6283.46 5350.12,6281.94"/>
    </edge>
    <edge id=":11470215473_2" function="internal">
        <lane id=":11470215473_2_0" index="0" allow="pedestrian delivery bicycle" speed="3.65" length="4.67" shape="5347.05,6290.39 5347.24,6288.96 5347.79,6288.25 5348.68,6288.26 5349.93,6288.99"/>
    </edge>
    <edge id=":11470215473_3" function="internal">
        <lane id=":11470215473_3_0" index="0" allow="pedestrian delivery bicycle" speed="5.00" length="5.04" shape="5351.42,6284.86 5350.25,6285.60 5349.61,6286.54 5349.50,6287.66 5349.93,6288.99"/>
    </edge>
    <edge id=":11470215473_4" function="internal">
        <lane id=":11470215473_4_0" index="0" allow="pedestrian delivery bicycle" speed="5.56" length="10.17" shape="5351.42,6284.86 5348.71,6285.65 5346.39,6285.43 5344.46,6284.19 5342.92,6281.95"/>
    </edge>
    <edge id=":11470215473_5" function="internal">
        <lane id=":11470215473_5_0" index="0" allow="pedestrian delivery bicycle" speed="3.65" length="4.67" shape="5351.42,6284.86 5350.00,6284.62 5349.31,6284.05 5349.35,6283.16 5350.12,6281.94"/>
    </edge>
    <edge id=":11470215473_6" function="internal">
        <lane id=":11470215473_6_0" index="0" allow="pedestrian delivery bicycle" speed="5.17" length="5.15" shape="5345.79,6280.54 5346.56,6281.65 5347.54,6282.26 5348.73,6282.35 5350.12,6281.94"/>
    </edge>
    <edge id=":11470215473_7" function="internal">
        <lane id=":11470215473_7_0" index="0" allow="pedestrian delivery bicycle" speed="5.56" length="9.40" shape="5345.79,6280.54 5349.93,6288.99"/>
    </edge>
    <edge id=":11470215473_8" function="internal">
        <lane id=":11470215473_8_0" index="0" allow="pedestrian delivery bicycle" speed="3.65" length="4.67" shape="5345.79,6280.54 5345.60,6281.97 5345.06,6282.68 5344.16,6282.68 5342.92,6281.95"/>
    </edge>
    <edge id=":11470215474_0" function="internal">
        <lane id=":11470215474_0_0" index="0" allow="pedestrian delivery bicycle" speed="5.01" length="5.03" shape="5410.72,6261.94 5410.01,6260.75 5409.10,6260.08 5407.98,6259.94 5406.65,6260.32"/>
    </edge>
    <edge id=":11470215474_1" function="internal">
        <lane id=":11470215474_1_0" index="0" allow="pedestrian delivery bicycle" speed="5.56" length="9.44" shape="5410.72,6261.94 5407.01,6253.26"/>
    </edge>
    <edge id=":11470215474_2" function="internal">
        <lane id=":11470215474_2_0" index="0" allow="pedestrian delivery bicycle" speed="3.65" length="4.67" shape="5410.72,6261.94 5411.00,6260.53 5411.59,6259.85 5412.48,6259.92 5413.68,6260.72"/>
    </edge>
    <edge id=":11470215474_3" function="internal">
        <lane id=":11470215474_3_0" index="0" allow="pedestrian delivery bicycle" speed="5.56" length="9.52" shape="5409.94,6251.97 5413.68,6260.72"/>
    </edge>
    <edge id=":11470215474_4" function="internal">
        <lane id=":11470215474_4_0" index="0" allow="pedestrian delivery bicycle" speed="5.56" length="10.22" shape="5409.94,6251.97 5410.68,6254.65 5410.39,6256.93 5409.04,6258.82 5406.65,6260.32"/>
    </edge>
    <edge id=":11470215474_5" function="internal">
        <lane id=":11470215474_5_0" index="0" allow="pedestrian delivery bicycle" speed="3.65" length="4.67" shape="5409.94,6251.97 5409.69,6253.39 5409.12,6254.08 5408.23,6254.04 5407.01,6253.26"/>
    </edge>
    <edge id=":11470215474_6" function="internal">
        <lane id=":11470215474_6_0" index="0" allow="pedestrian delivery bicycle" speed="5.07" length="5.07" shape="5405.35,6257.39 5406.54,6256.65 5407.22,6255.71 5407.38,6254.58 5407.01,6253.26"/>
    </edge>
    <edge id=":11470215474_7" function="internal">
        <lane id=":11470215474_7_0" index="0" allow="pedestrian delivery bicycle" speed="5.56" length="10.29" shape="5405.35,6257.39 5408.07,6256.62 5410.37,6256.92 5412.24,6258.29 5413.68,6260.72"/>
    </edge>
    <edge id=":11470215474_8" function="internal">
        <lane id=":11470215474_8_0" index="0" allow="pedestrian delivery bicycle" speed="3.65" length="4.67" shape="5405.35,6257.39 5406.77,6257.64 5407.46,6258.20 5407.42,6259.10 5406.65,6260.32"/>
    </edge>
    <edge id=":11470215480_0" function="internal">
        <lane id=":11470215480_0_0" index="0" allow="pedestrian delivery bicycle" speed="5.56" length="5.25" shape="5381.50,6271.49 5376.70,6273.63"/>
    </edge>
    <edge id=":11470215480_1" function="internal">
        <lane id=":11470215480_1_0" index="0" allow="pedestrian delivery bicycle" speed="3.65" length="2.34" shape="5381.50,6271.49 5380.08,6271.25 5379.39,6270.68"/>
    </edge>
    <edge id=":11470215480_4" function="internal">
        <lane id=":11470215480_4_0" index="0" allow="pedestrian delivery bicycle" speed="3.65" length="2.34" shape="5379.39,6270.68 5379.43,6269.79 5380.20,6268.57"/>
    </edge>
    <edge id=":11470215480_2" function="internal">
        <lane id=":11470215480_2_0" index="0" allow="pedestrian delivery bicycle" speed="5.56" length="5.25" shape="5375.40,6270.70 5380.20,6268.57"/>
    </edge>
    <edge id=":11470215480_3" function="internal">
        <lane id=":11470215480_3_0" index="0" allow="pedestrian delivery bicycle" speed="3.65" length="2.34" shape="5375.40,6270.70 5376.82,6270.95 5377.51,6271.51"/>
    </edge>
    <edge id=":11470215480_5" function="internal">
        <lane id=":11470215480_5_0" index="0" allow="pedestrian delivery bicycle" speed="3.65" length="2.34" shape="5377.51,6271.51 5377.47,6272.41 5376.70,6273.63"/>
    </edge>
    <edge id=":12659968538_0" function="internal">
        <lane id=":12659968538_0_0" index="0" disallow="tram rail_urban rail rail_electric rail_fast ship" speed="6.74" length="9.33" shape="6330.43,7072.93 6329.47,7070.67 6327.97,7069.21 6325.91,7068.56 6323.30,7068.72"/>
    </edge>
    <edge id=":12659968538_1" function="internal">
        <lane id=":12659968538_1_0" index="0" disallow="tram rail_urban rail rail_electric rail_fast ship" speed="13.89" length="14.41" shape="6330.43,7072.93 6326.86,7058.97"/>
    </edge>
    <edge id=":12659968538_2" function="internal">
        <lane id=":12659968538_2_0" index="0" disallow="tram rail_urban rail rail_electric rail_fast ship" speed="3.65" length="2.34" shape="6330.43,7072.93 6330.91,7071.57 6331.59,7070.98"/>
    </edge>
    <edge id=":12659968538_9" function="internal">
        <lane id=":12659968538_9_0" index="0" disallow="tram rail_urban rail rail_electric rail_fast ship" speed="3.65" length="2.34" shape="6331.59,7070.98 6332.46,7071.17 6333.53,7072.14"/>
    </edge>
    <edge id=":12659968538_3" function="internal">
        <lane id=":12659968538_3_0" index="0" disallow="tram rail_urban rail rail_electric rail_fast ship" speed="13.89" length="14.41" shape="6329.96,7058.18 6333.53,7072.14"/>
    </edge>
    <edge id=":12659968538_4" function="internal">
        <lane id=":12659968538_4_0" index="0" disallow="tram rail_urban rail rail_electric rail_fast ship" speed="7.90" length="5.94" shape="6329.96,7058.18 6330.39,7062.14 6329.80,7064.00"/>
    </edge>
    <edge id=":12659968538_5" function="internal">
        <lane id=":12659968538_5_0" index="0" disallow="tram rail_urban rail rail_electric rail_fast ship" speed="3.65" length="2.34" shape="6329.96,7058.18 6329.48,7059.54 6328.80,7060.12"/>
    </edge>
    <edge id=":12659968538_10" function="internal">
        <lane id=":12659968538_10_0" index="0" disallow="tram rail_urban rail rail_electric rail_fast ship" speed="7.90" length="8.47" shape="6329.80,7064.00 6329.42,7065.21 6327.06,7067.41 6323.30,7068.72"/>
    </edge>
    <edge id=":12659968538_11" function="internal">
        <lane id=":12659968538_11_0" index="0" disallow="tram rail_urban rail rail_electric rail_fast ship" speed="3.65" length="2.34" shape="6328.80,7060.12 6327.93,7059.94 6326.86,7058.97"/>
    </edge>
    <edge id=":12659968538_6" function="internal">
        <lane id=":12659968538_6_0" index="0" disallow="tram rail_urban rail rail_electric rail_fast ship" speed="6.39" length="9.04" shape="6322.68,7065.58 6325.04,7064.76 6326.52,7063.38 6327.13,7061.45 6326.86,7058.97"/>
    </edge>
    <edge id=":12659968538_7" function="internal">
        <lane id=":12659968538_7_0" index="0" disallow="tram rail_urban rail rail_electric rail_fast ship" speed="8.19" length="14.28" shape="6322.68,7065.58 6326.64,7065.35 6329.76,7066.36 6332.06,7068.63 6333.53,7072.14"/>
    </edge>
    <edge id=":12659968538_8" function="internal">
        <lane id=":12659968538_8_0" index="0" disallow="tram rail_urban rail rail_electric rail_fast ship" speed="3.65" length="4.67" shape="6322.68,7065.58 6324.02,7066.14 6324.56,7066.85 6324.32,7067.71 6323.30,7068.72"/>
    </edge>
    <edge id=":12968905719_0" function="internal">
        <lane id=":12968905719_0_0" index="0" allow="pedestrian delivery bicycle" speed="5.56" length="6.13" shape="6556.96,6077.22 6555.32,6077.97 6554.12,6078.31 6552.85,6078.37 6551.04,6078.28"/>
    </edge>
    <edge id=":12968905719_1" function="internal">
        <lane id=":12968905719_1_0" index="0" allow="pedestrian delivery bicycle" speed="3.65" length="4.67" shape="6556.96,6077.22 6555.52,6077.04 6554.81,6076.50 6554.81,6075.61 6555.53,6074.35"/>
    </edge>
    <edge id=":12968905719_2" function="internal">
        <lane id=":12968905719_2_0" index="0" allow="pedestrian delivery bicycle" speed="5.56" length="4.48" shape="6551.20,6075.08 6552.52,6075.15 6553.45,6075.13 6554.33,6074.90 6555.53,6074.35"/>
    </edge>
    <edge id=":12968905719_3" function="internal">
        <lane id=":12968905719_3_0" index="0" allow="pedestrian delivery bicycle" speed="3.65" length="4.67" shape="6551.20,6075.08 6552.36,6075.94 6552.72,6076.76 6552.28,6077.54 6551.04,6078.28"/>
    </edge>
    <edge id=":12968905719_4" function="internal">
        <lane id=":12968905719_4_0" index="0" allow="pedestrian delivery bicycle" speed="5.06" length="4.98" shape="6554.02,6081.50 6553.87,6080.15 6553.32,6079.16 6552.38,6078.54 6551.04,6078.28"/>
    </edge>
    <edge id=":12968905719_5" function="internal">
        <lane id=":12968905719_5_0" index="0" allow="pedestrian delivery bicycle" speed="5.56" length="7.45" shape="6554.02,6081.50 6554.18,6078.62 6554.49,6076.47 6554.93,6075.05 6555.53,6074.35"/>
    </edge>
    <edge id=":12968905722_0" function="internal">
        <lane id=":12968905722_0_0" index="0" allow="pedestrian delivery bicycle" speed="4.99" length="5.06" shape="6522.91,6076.92 6521.51,6077.05 6520.52,6077.60 6519.93,6078.56 6519.73,6079.95"/>
    </edge>
    <edge id=":12968905722_1" function="internal">
        <lane id=":12968905722_1_0" index="0" allow="pedestrian delivery bicycle" speed="5.56" length="5.94" shape="6522.91,6076.92 6521.14,6076.84 6519.93,6076.73 6518.76,6076.42 6517.14,6075.75"/>
    </edge>
    <edge id=":12968905722_2" function="internal">
        <lane id=":12968905722_2_0" index="0" allow="pedestrian delivery bicycle" speed="3.65" length="4.67" shape="6522.91,6076.92 6521.75,6076.06 6521.38,6075.24 6521.82,6074.46 6523.06,6073.72"/>
    </edge>
    <edge id=":12968905722_3" function="internal">
        <lane id=":12968905722_3_0" index="0" allow="pedestrian delivery bicycle" speed="5.56" length="4.74" shape="6518.46,6072.84 6519.75,6073.36 6520.68,6073.60 6521.65,6073.67 6523.06,6073.72"/>
    </edge>
    <edge id=":12968905722_4" function="internal">
        <lane id=":12968905722_4_0" index="0" allow="pedestrian delivery bicycle" speed="5.56" length="7.38" shape="6518.46,6072.84 6519.01,6073.49 6519.41,6074.90 6519.65,6077.05 6519.73,6079.95"/>
    </edge>
    <edge id=":12968905722_5" function="internal">
        <lane id=":12968905722_5_0" index="0" allow="pedestrian delivery bicycle" speed="3.65" length="4.67" shape="6518.46,6072.84 6519.22,6074.06 6519.26,6074.95 6518.56,6075.52 6517.14,6075.75"/>
    </edge>
    <edge id=":12968905724_0" function="internal">
        <lane id=":12968905724_0_0" index="0" allow="pedestrian delivery bicycle" speed="5.54" length="5.34" shape="6549.88,6130.51 6551.10,6130.09 6551.99,6129.30 6552.54,6128.12 6552.76,6126.58"/>
    </edge>
    <edge id=":12968905724_1" function="internal">
        <lane id=":12968905724_1_0" index="0" disallow="tram rail_urban rail rail_electric rail_fast ship" speed="27.78" length="6.29" shape="6549.88,6130.51 6556.08,6129.42"/>
    </edge>
    <edge id=":12996351877_0" function="internal">
        <lane id=":12996351877_0_0" index="0" allow="pedestrian delivery bicycle" speed="5.56" length="5.89" shape="5651.11,6575.76 5645.53,6577.67"/>
    </edge>
    <edge id=":12996351877_1" function="internal">
        <lane id=":12996351877_1_0" index="0" allow="pedestrian delivery bicycle" speed="3.65" length="2.34" shape="5651.11,6575.76 5649.73,6575.35 5649.11,6574.71"/>
    </edge>
    <edge id=":12996351877_4" function="internal">
        <lane id=":12996351877_4_0" index="0" allow="pedestrian delivery bicycle" speed="3.65" length="2.34" shape="5649.11,6574.71 5649.26,6573.82 5650.17,6572.71"/>
    </edge>
    <edge id=":12996351877_2" function="internal">
        <lane id=":12996351877_2_0" index="0" allow="pedestrian delivery bicycle" speed="5.56" length="6.08" shape="5644.42,6574.67 5650.17,6572.71"/>
    </edge>
    <edge id=":12996351877_3" function="internal">
        <lane id=":12996351877_3_0" index="0" allow="pedestrian delivery bicycle" speed="3.65" length="2.34" shape="5644.42,6574.67 5645.82,6575.00 5646.47,6575.61"/>
    </edge>
    <edge id=":12996351877_5" function="internal">
        <lane id=":12996351877_5_0" index="0" allow="pedestrian delivery bicycle" speed="3.65" length="2.34" shape="5646.47,6575.61 5646.38,6576.50 5645.53,6577.67"/>
    </edge>
    <edge id=":12996351888_0" function="internal">
        <lane id=":12996351888_0_0" index="0" allow="pedestrian delivery bicycle" speed="5.56" length="5.11" shape="5207.18,6354.38 5209.38,6358.99"/>
    </edge>
    <edge id=":12996351890_0" function="internal">
        <lane id=":12996351890_0_0" index="0" allow="pedestrian delivery bicycle" speed="5.56" length="5.03" shape="5332.79,6302.95 5330.66,6298.40"/>
    </edge>
    <edge id=":12996351891_0" function="internal">
        <lane id=":12996351891_0_0" index="0" allow="pedestrian delivery bicycle" speed="5.56" length="5.16" shape="5349.59,6295.57 5347.32,6290.94"/>
    </edge>
    <edge id=":12996351891_1" function="internal">
        <lane id=":12996351891_1_0" index="0" allow="pedestrian delivery bicycle" speed="3.65" length="2.34" shape="5349.59,6295.57 5349.78,6294.14 5350.32,6293.43"/>
    </edge>
    <edge id=":12996351891_4" function="internal">
        <lane id=":12996351891_4_0" index="0" allow="pedestrian delivery bicycle" speed="3.65" length="2.34" shape="5350.32,6293.43 5351.22,6293.43 5352.46,6294.16"/>
    </edge>
    <edge id=":12996351891_2" function="internal">
        <lane id=":12996351891_2_0" index="0" allow="pedestrian delivery bicycle" speed="5.56" length="5.15" shape="5350.19,6289.53 5352.46,6294.16"/>
    </edge>
    <edge id=":12996351891_3" function="internal">
        <lane id=":12996351891_3_0" index="0" allow="pedestrian delivery bicycle" speed="3.65" length="2.34" shape="5350.19,6289.53 5350.00,6290.96 5349.46,6291.67"/>
    </edge>
    <edge id=":12996351891_5" function="internal">
        <lane id=":12996351891_5_0" index="0" allow="pedestrian delivery bicycle" speed="3.65" length="2.34" shape="5349.46,6291.67 5348.57,6291.67 5347.32,6290.94"/>
    </edge>
    <edge id=":13155245086_0" function="internal">
        <lane id=":13155245086_0_0" index="0" allow="pedestrian delivery bicycle" speed="5.56" length="5.00" shape="6003.00,7199.78 5998.38,7201.71"/>
    </edge>
    <edge id=":13155245086_1" function="internal">
        <lane id=":13155245086_1_0" index="0" allow="pedestrian delivery bicycle" speed="3.65" length="2.34" shape="6003.00,7199.78 6001.58,7199.51 6000.90,7198.92"/>
    </edge>
    <edge id=":13155245086_4" function="internal">
        <lane id=":13155245086_4_0" index="0" allow="pedestrian delivery bicycle" speed="3.65" length="2.34" shape="6000.90,7198.92 6000.96,7198.03 6001.76,7196.83"/>
    </edge>
    <edge id=":13155245086_2" function="internal">
        <lane id=":13155245086_2_0" index="0" allow="pedestrian delivery bicycle" speed="5.56" length="5.00" shape="5997.15,7198.76 6001.76,7196.83"/>
    </edge>
    <edge id=":13155245086_3" function="internal">
        <lane id=":13155245086_3_0" index="0" allow="pedestrian delivery bicycle" speed="3.65" length="2.34" shape="5997.15,7198.76 5998.56,7199.03 5999.24,7199.62"/>
    </edge>
    <edge id=":13155245086_5" function="internal">
        <lane id=":13155245086_5_0" index="0" allow="pedestrian delivery bicycle" speed="3.65" length="2.34" shape="5999.24,7199.62 5999.18,7200.51 5998.38,7201.71"/>
    </edge>
    <edge id=":13166956890_0" function="internal">
        <lane id=":13166956890_0_0" index="0" allow="pedestrian delivery bicycle" speed="3.65" length="4.67" shape="6624.12,6323.67 6625.17,6324.67 6625.43,6325.52 6624.90,6326.24 6623.58,6326.83"/>
    </edge>
    <edge id=":13277422400_0" function="internal">
        <lane id=":13277422400_0_0" index="0" disallow="tram rail_urban rail rail_electric rail_fast ship" speed="7.56" length="10.22" shape="6064.49,7019.27 6063.12,7016.63 6061.38,7014.84 6059.29,7013.90 6056.83,7013.81"/>
    </edge>
    <edge id=":13277422400_1" function="internal">
        <lane id=":13277422400_1_0" index="0" disallow="tram rail_urban rail rail_electric rail_fast ship" speed="3.65" length="4.67" shape="6064.49,7019.27 6064.80,7017.86 6065.40,7017.20 6066.29,7017.28 6067.47,7018.11"/>
    </edge>
    <edge id=":13277422400_2" function="internal">
        <lane id=":13277422400_2_0" index="0" disallow="tram rail_urban rail rail_electric rail_fast ship" speed="6.09" length="9.06" shape="6071.22,7011.60 6068.76,7012.35 6067.32,7013.69 6066.89,7015.61 6067.47,7018.11"/>
    </edge>
    <edge id=":13277422400_3" function="internal">
        <lane id=":13277422400_3_0" index="0" disallow="tram rail_urban rail rail_electric rail_fast ship" speed="13.89" length="14.55" shape="6071.22,7011.60 6056.83,7013.81"/>
    </edge>
    <edge id=":1331206901_0" function="internal">
        <lane id=":1331206901_0_0" index="0" disallow="pedestrian bicycle tram rail_urban rail rail_electric rail_fast ship" speed="27.78" length="8.03" shape="5400.36,5474.18 5399.39,5472.08 5398.35,5470.82 5397.27,5469.58 5396.15,5467.53"/>
        <lane id=":1331206901_0_1" index="1" disallow="pedestrian bicycle tram rail_urban rail rail_electric rail_fast ship" speed="27.78" length="8.03" shape="5403.39,5473.15 5402.40,5470.99 5401.35,5469.69 5400.25,5468.41 5399.11,5466.30"/>
    </edge>
    <edge id=":13415078101_0" function="internal">